%chk=test_h20_opt.chk
# opt b3lyp/3-21g geom=connectivity

test h20

0 1
 O                  0.15727392    2.37876799    0.00000000
 H                  1.11727392    2.37876799    0.00000000
 H                 -0.16318066    3.28370382    0.00000000
 O                  2.60812586    2.92922669    0.00000000
 H                  3.56812586    2.92922669    0.00000000
 H                  2.28767128    3.83416252    0.00000000
 O                  2.16251642    0.58322411    0.00000000
 H                  3.12251642    0.58322411    0.00000000
 H                  1.84206183    1.48815994    0.00000000

 1 2 1.0 3 1.0
 2
 3
 4 5 1.0 6 1.0
 5
 6
 7 8 1.0 9 1.0
 8
 9

